/*--------------------------------*- C++ -*----------------------------------*\
| =========                 |                                                 |
| \\      /  F ield         | OpenFOAM: The Open Source CFD Toolbox           |
|  \\    /   O peration     | Version:  v2006                                 |
|   \\  /    A nd           | Website:  www.openfoam.com                      |
|    \\/     M anipulation  |                                                 |
\*---------------------------------------------------------------------------*/
FoamFile
{
    version     2.0;
    format      ascii;
    class       volScalarField;
    object      T;
}
// * * * * * * * * * * * * * * * * * * * * * * * * * * * * * * * * * * * * * //

dimensions      [0 0 0 1 0 0 0];

internalField   uniform 298.15;

boundaryField
{
    Inlet
    {
        type            inletOutlet;
        inletValue           uniform 298.15;
    }

    Outlet
    {
        type            zeroGradient;
    }
	
	Side
	{
		type			empty;
	}

    Airfoil
    {
        type            fixedValue;
        value           uniform 298.15;
    }
}

// ************************************************************************* //
